&share
[[[WPS_SHARE_OPTS]]]
/

&geogrid
[[[WPS_GEOGRID_OPTS]]]
 geog_data_path     =  '[[[#INPUTPATH]]]/'
/

&ungrib
 out_format  =  'WPS',
 prefix      =  'FILE',
/

&metgrid
 fg_name          =  'FILE',
 io_form_metgrid  =  2,
/
